<?xml version="1.0" encoding="UTF-8"?>

<!-- generated on 2026-03-17T22:25:34.804217-08:00 by Eclipse SUMO netedit 1.26.0
<neteditConfiguration xmlns:xsi="http://www.w3.org/2001/XMLSchema-instance" xsi:noNamespaceSchemaLocation="http://sumo.dlr.de/xsd/neteditConfiguration.xsd">

    <input>
        <sumo-net-file value="C:\Users\01lee\Scenic\ART\LVMS\LVMSF.xml"/>
    </input>

    <output>
        <output-file value="C:\Users\01lee\Scenic\ART\LVMS\LVMSF.xml"/>
        <opendrive-output value="C:\Users\01lee\Scenic\ART\LVMS\LVMS_Final.xml"/>
    </output>

    <processing>
        <geometry.min-radius.fix.railways value="false"/>
        <geometry.avoid-overlap value="false"/>
        <geometry.max-grade.fix value="false"/>
        <offset.disable-normalization value="true"/>
        <lefthand value="0"/>
    </processing>

    <junctions>
        <no-turnarounds value="true"/>
        <junctions.corner-detail value="5"/>
        <junctions.limit-turn-speed value="5.50"/>
        <rectangular-lane-cut value="0"/>
    </junctions>

    <pedestrian>
        <walkingareas value="0"/>
    </pedestrian>

</neteditConfiguration>
-->

<OpenDRIVE>
    <header revMajor="1" revMinor="4" name="" version="1.00" date="Tue Mar 17 22:25:34 2026" north="4016369.41" south="4015585.27" east="679137.48" west="678306.26">
        <geoReference>
 <![CDATA[
 +proj=utm +zone=11 +ellps=WGS84 +datum=WGS84 +units=m +no_defs
]]>
        </geoReference>
    </header>
    <road name="" length="770.16392450" id="20" junction="-1">
        <link>
            <predecessor elementType="junction" elementId="1"/>
            <successor elementType="junction" elementId="2"/>
        </link>
        <type s="0" type="town"/>
        <planView>
            <geometry s="0.00000000" x="678885.41708087" y="4016350.51766889" hdg="-2.92996412" length="6.78276039">
                <line/>
            </geometry>
            <geometry s="6.78276039" x="678878.78564295" y="4016349.09293396" hdg="-2.92996412" length="21.92921531">
                <paramPoly3 aU="-0.00000000" bU="16.44471361" cU="16.41464450" dU="-10.95639922" aV="0.00000000" bV="0.00000000" cV="1.88837041" dV="-0.87725349" pRange="normalized"/>
            </geometry>
            <geometry s="28.71197570" x="678857.58372363" y="4016343.50360637" hdg="-2.86028170" length="22.73567666">
                <paramPoly3 aU="-0.00000000" bU="17.05080147" cU="17.05159097" dU="-11.37385505" aV="0.00000000" bV="-0.00000000" cV="0.75750499" dV="-0.24115171" pRange="normalized"/>
            </geometry>
            <geometry s="51.44765235" x="678835.89193982" y="4016336.69775981" hdg="-2.81384169" length="22.76590934">
                <paramPoly3 aU="-0.00000000" bU="17.07368997" cU="17.06856895" dU="-11.38372874" aV="0.00000000" bV="0.00000000" cV="0.92554162" dV="-0.38620398" pRange="normalized"/>
            </geometry>
            <geometry s="74.21356169" x="678814.51849564" y="4016328.86083028" hdg="-2.77327276" length="23.81911815">
                <paramPoly3 aU="-0.00000000" bU="17.86380730" cU="17.86472095" dU="-11.91321643" aV="0.00000000" bV="-0.00000000" cV="0.54862030" dV="-0.16447827" pRange="normalized"/>
            </geometry>
            <geometry s="98.03267984" x="678792.43870124" y="4016319.92778369" hdg="-2.73946581" length="23.78254067">
                <paramPoly3 aU="-0.00000000" bU="17.83632681" cU="17.83627489" dU="-11.89456015" aV="0.00000000" bV="0.00000000" cV="0.63311229" dV="-0.21206514" pRange="normalized"/>
            </geometry>
            <geometry s="121.81522051" x="678770.72220581" y="4016310.23415862" hdg="-2.70413565" length="23.78889321">
                <paramPoly3 aU="-0.00000000" bU="17.84107595" cU="17.84142130" dU="-11.89808854" aV="0.00000000" bV="0.00000000" cV="0.61903695" dV="-0.19991413" pRange="normalized"/>
            </geometry>
            <geometry s="145.60411372" x="678749.35508572" y="4016299.77854095" hdg="-2.66834926" length="23.79821455">
                <paramPoly3 aU="-0.00000000" bU="17.84808454" cU="17.84739389" dU="-11.90195601" aV="0.00000000" bV="0.00000000" cV="0.66755819" dV="-0.23543610" pRange="normalized"/>
            </geometry>
            <geometry s="169.40232827" x="678728.37354792" y="4016288.54940428" hdg="-2.63311084" length="22.78401261">
                <paramPoly3 aU="-0.00000000" bU="17.08746190" cU="17.08711665" dU="-11.39492125" aV="0.00000000" bV="-0.00000000" cV="0.61945082" dV="-0.21303211" pRange="normalized"/>
            </geometry>
            <geometry s="192.18634088" x="678708.67373263" y="4016277.10408906" hdg="-2.59800156" length="22.78748493">
                <paramPoly3 aU="-0.00000000" bU="17.09009168" cU="17.08994127" dU="-11.39664098" aV="0.00000000" bV="0.00000000" cV="0.59460310" dV="-0.20115818" pRange="normalized"/>
            </geometry>
            <geometry s="214.97382581" x="678689.37790542" y="4016264.98349498" hdg="-2.56372167" length="22.79803674">
                <paramPoly3 aU="-0.00000000" bU="17.09801506" cU="17.09798462" dU="-11.40194226" aV="0.00000000" bV="0.00000000" cV="0.58242646" dV="-0.19478111" pRange="normalized"/>
            </geometry>
            <geometry s="237.77186255" x="678670.49672403" y="4016252.20772447" hdg="-2.52976328" length="22.78019409">
                <paramPoly3 aU="-0.00000000" bU="17.08461733" cU="17.08493988" dU="-11.39334619" aV="0.00000000" bV="-0.00000000" cV="0.57035661" dV="-0.18387759" pRange="normalized"/>
            </geometry>
            <geometry s="260.55205664" x="678652.07412867" y="4016238.80947330" hdg="-2.49527628" length="22.74034739">
                <paramPoly3 aU="-0.00000000" bU="17.05453809" cU="17.05780282" dU="-11.37645899" aV="0.00000000" bV="-0.00000000" cV="0.51200662" dV="-0.11292829" pRange="normalized"/>
            </geometry>
            <geometry s="283.29240403" x="678634.16424461" y="4016224.79820488" hdg="-2.45508680" length="22.63873892">
                <paramPoly3 aU="-0.00000000" bU="16.97870230" cU="16.96529488" dU="-11.31158020" aV="0.00000000" bV="0.00000000" cV="1.16881018" dV="-0.65406915" pRange="normalized"/>
            </geometry>
            <geometry s="305.93114296" x="678616.98511448" y="4016210.05477433" hdg="-2.43297419" length="138.91385187">
                <line/>
            </geometry>
            <geometry s="444.84499483" x="678511.51314948" y="4016119.65166133" hdg="-2.43297419" length="29.18879216">
                <paramPoly3 aU="-0.00000000" bU="21.89123411" cU="21.89615680" dU="-14.59927899" aV="0.00000000" bV="0.00000000" cV="-0.16739066" dV="0.27550290" pRange="normalized"/>
            </geometry>
            <geometry s="474.03378699" x="678489.42209236" y="4016100.57437742" hdg="-2.41051000" length="18.30932141">
                <paramPoly3 aU="-0.00000000" bU="13.73121940" cU="13.72066179" dU="-9.15177824" aV="0.00000000" bV="0.00000000" cV="1.02249254" dV="-0.47494550" pRange="normalized"/>
            </geometry>
            <geometry s="492.34310841" x="678476.16412852" y="4016087.94821529" hdg="-2.36533123" length="18.34299576">
                <paramPoly3 aU="-0.00000000" bU="13.75678820" cU="13.75911816" dU="-9.17565182" aV="0.00000000" bV="-0.00000000" cV="0.34880696" dV="-0.06930038" pRange="normalized"/>
            </geometry>
            <geometry s="510.68610417" x="678463.27349006" y="4016074.89928810" hdg="-2.32972581" length="24.54248875">
                <paramPoly3 aU="-0.00000000" bU="18.40625613" cU="18.40933459" dU="-12.27675888" aV="0.00000000" bV="0.00000000" cV="0.46705656" dV="-0.09351144" pRange="normalized"/>
            </geometry>
            <geometry s="535.22859291" x="678446.65824740" y="4016056.83751865" hdg="-2.29420983" length="24.53211712">
                <paramPoly3 aU="-0.00000000" bU="18.39829188" cU="18.39843347" dU="-12.27072550" aV="0.00000000" bV="0.00000000" cV="0.74368057" dV="-0.24565266" pRange="normalized"/>
            </geometry>
            <geometry s="559.76071003" x="678430.79662960" y="4016038.12437405" hdg="-2.25341195" length="24.47273714">
                <paramPoly3 aU="-0.00000000" bU="18.35241354" cU="18.37520526" dU="-12.26289863" aV="0.00000000" bV="0.00000000" cV="0.32333624" dV="0.17938160" pRange="normalized"/>
            </geometry>
            <geometry s="584.23344718" x="678415.75375123" y="4016018.82444999" hdg="-2.18880781" length="65.96470210">
                <paramPoly3 aU="-0.00000000" bU="49.47298740" cU="49.45326041" dU="-32.97106965" aV="0.00000000" bV="0.00000000" cV="2.41980067" dV="-1.34204682" pRange="normalized"/>
            </geometry>
            <geometry s="650.19814927" x="678378.41669618" y="4015964.44438563" hdg="-2.17236454" length="18.12475679">
                <paramPoly3 aU="-0.00000000" bU="13.59311447" cU="13.59878655" dU="-9.06774969" aV="0.00000000" bV="-0.00000000" cV="-0.37219518" dV="0.37905675" pRange="normalized"/>
            </geometry>
            <geometry s="668.32290606" x="678368.16524199" y="4015949.49806182" hdg="-2.14346502" length="17.96140477">
                <paramPoly3 aU="-0.00000000" bU="13.46991956" cU="13.46941396" dU="-8.98687921" aV="0.00000000" bV="-0.00000000" cV="0.78433562" dV="-0.26748784" pRange="normalized"/>
            </geometry>
            <geometry s="686.28431083" x="678358.87161054" y="4015934.12971245" hdg="-2.08655142" length="17.95271701">
                <paramPoly3 aU="-0.00000000" bU="13.46341058" cU="13.46376038" dU="-8.98306650" aV="0.00000000" bV="-0.00000000" cV="0.75180790" dV="-0.24663167" pRange="normalized"/>
            </geometry>
            <geometry s="704.23702784" x="678350.46118741" y="4015918.27061819" hdg="-2.02979530" length="17.94985462">
                <paramPoly3 aU="-0.00000000" bU="13.46127204" cU="13.46074775" dU="-8.98100496" aV="0.00000000" bV="-0.00000000" cV="0.77973426" dV="-0.26620596" pRange="normalized"/>
            </geometry>
            <geometry s="722.18688246" x="678342.97278070" y="4015901.95904288" hdg="-1.97324371" length="17.95251394">
                <paramPoly3 aU="-0.00000000" bU="13.46332146" cU="13.46277737" dU="-8.98200579" aV="0.00000000" bV="-0.00000000" cV="0.76202973" dV="-0.26068490" pRange="normalized"/>
            </geometry>
            <geometry s="740.13939641" x="678336.40588324" y="4015885.25222752" hdg="-1.91810272" length="16.80903984">
                <paramPoly3 aU="-0.00000000" bU="12.60454688" cU="12.62437600" dU="-8.42995771" aV="0.00000000" bV="0.00000000" cV="0.44779499" dV="0.04057593" pRange="normalized"/>
            </geometry>
            <geometry s="756.94843624" x="678331.14729389" y="4015869.29005427" hdg="-1.83730446" length="13.21548825">
                <line/>
            </geometry>
        </planView>
        <elevationProfile>
            <elevation s="0" a="0.00" b="0" c="0" d="0"/>
        </elevationProfile>
        <lateralProfile/>
        <lanes>
            <laneSection s="0">
                <center>
                    <lane id="0" type="none" level="true">
                        <link/>
                        <roadMark sOffset="0" type="solid" weight="standard" color="standard" width="0.13"/>
                    </lane>
                </center>
                <right>
                    <lane id="-1" type="restricted" level="true">
                        <link/>
                        <width sOffset="0" a="4.00" b="0" c="0" d="0"/>
                        <roadMark sOffset="0" type="broken" weight="standard" color="standard" width="0.13"/>
                        <speed sOffset="0" max="83.33"/>
                    </lane>
                    <lane id="-2" type="restricted" level="true">
                        <link/>
                        <width sOffset="0" a="4.00" b="0" c="0" d="0"/>
                        <roadMark sOffset="0" type="broken" weight="standard" color="standard" width="0.13"/>
                        <speed sOffset="0" max="83.33"/>
                    </lane>
                    <lane id="-3" type="restricted" level="true">
                        <link/>
                        <width sOffset="0" a="4.00" b="0" c="0" d="0"/>
                        <roadMark sOffset="0" type="solid" weight="standard" color="standard" width="0.13"/>
                        <speed sOffset="0" max="83.33"/>
                    </lane>
                 </right>
            </laneSection>
        </lanes>
        <objects/>
        <signals/>
    </road>
    <road name="" length="1464.62843772" id="21" junction="-1">
        <link>
            <predecessor elementType="junction" elementId="2"/>
            <successor elementType="junction" elementId="1"/>
        </link>
        <type s="0" type="town"/>
        <planView>
            <geometry s="0.00000000" x="678318.21502325" y="4015768.91978596" hdg="-1.31810007" length="12.94013343">
                <line/>
            </geometry>
            <geometry s="12.94013343" x="678321.45025714" y="4015756.39060743" hdg="-1.31810007" length="15.01601180">
                <paramPoly3 aU="0.00000000" bU="11.25901832" cU="11.21629402" dU="-7.49554224" aV="0.00000000" bV="-0.00000000" cV="1.84885928" dV="-0.86531194" pRange="normalized"/>
            </geometry>
            <geometry s="27.95614522" x="678326.14774348" y="4015742.13246942" hdg="-1.22008541" length="15.01526373">
                <paramPoly3 aU="0.00000000" bU="11.26018983" cU="11.26067556" dU="-7.51518148" aV="0.00000000" bV="0.00000000" cV="0.72344397" dV="-0.23638339" pRange="normalized"/>
            </geometry>
            <geometry s="42.97140895" x="678331.76059191" y="4015728.20753816" hdg="-1.15452110" length="15.00429934">
                <paramPoly3 aU="0.00000000" bU="11.25194675" cU="11.25180680" dU="-7.50939629" aV="0.00000000" bV="0.00000000" cV="0.74809593" dV="-0.25097741" pRange="normalized"/>
            </geometry>
            <geometry s="57.97570829" x="678338.27832430" y="4015714.69469090" hdg="-1.08841688" length="15.02996486">
                <paramPoly3 aU="0.00000000" bU="11.27121060" cU="11.27109570" dU="-7.52216127" aV="0.00000000" bV="0.00000000" cV="0.74370014" dV="-0.24926428" pRange="normalized"/>
            </geometry>
            <geometry s="73.00567315" x="678345.68401334" y="4015701.61780313" hdg="-1.02275053" length="15.02932040">
                <paramPoly3 aU="0.00000000" bU="11.27075007" cU="11.27041132" dU="-7.52155857" aV="0.00000000" bV="0.00000000" cV="0.74383608" dV="-0.25159691" pRange="normalized"/>
            </geometry>
            <geometry s="88.03499354" x="678353.92967819" y="4015689.05437290" hdg="-0.95767954" length="15.01933512">
                <paramPoly3 aU="0.00000000" bU="11.26325738" cU="11.26363698" dU="-7.51706616" aV="0.00000000" bV="-0.00000000" cV="0.72262771" dV="-0.23717425" pRange="normalized"/>
            </geometry>
            <geometry s="103.05432867" x="678362.96365596" y="4015677.05779616" hdg="-0.89248946" length="14.84815025">
                <paramPoly3 aU="0.00000000" bU="11.13487855" cU="11.13401026" dU="-7.43058425" aV="0.00000000" bV="0.00000000" cV="0.75352991" dV="-0.26015325" pRange="normalized"/>
            </geometry>
            <geometry s="117.90247892" x="678372.65849083" y="4015665.81373641" hdg="-0.82718863" length="14.85589945">
                <paramPoly3 aU="0.00000000" bU="11.14073620" cU="11.14071296" dU="-7.43476086" aV="0.00000000" bV="0.00000000" cV="0.71454702" dV="-0.23860712" pRange="normalized"/>
            </geometry>
            <geometry s="132.75837837" x="678383.05922869" y="4015655.20829800" hdg="-0.76312098" length="14.86031760">
                <paramPoly3 aU="0.00000000" bU="11.14402958" cU="11.14443586" dU="-7.43737214" aV="0.00000000" bV="0.00000000" cV="0.70733378" dV="-0.23175527" pRange="normalized"/>
            </geometry>
            <geometry s="147.61869597" x="678394.12056258" y="4015645.28720734" hdg="-0.69852115" length="14.85982424">
                <paramPoly3 aU="0.00000000" bU="11.14364727" cU="11.14346166" dU="-7.43680177" aV="0.00000000" bV="0.00000000" cV="0.72932481" dV="-0.24520045" pRange="normalized"/>
            </geometry>
            <geometry s="162.47852022" x="678405.80417299" y="4015636.10792377" hdg="-0.63359119" length="14.87108561">
                <paramPoly3 aU="0.00000000" bU="11.15211510" cU="11.15188583" dU="-7.44227804" aV="0.00000000" bV="0.00000000" cV="0.72450537" dV="-0.24405711" pRange="normalized"/>
            </geometry>
            <geometry s="177.34960583" x="678418.06577899" y="4015627.69634508" hdg="-0.56926851" length="14.87585061">
                <paramPoly3 aU="0.00000000" bU="11.15569051" cU="11.15588218" dU="-7.44493164" aV="0.00000000" bV="-0.00000000" cV="0.71103780" dV="-0.23520568" pRange="normalized"/>
            </geometry>
            <geometry s="192.22545643" x="678430.84436477" y="4015620.08377796" hdg="-0.50500069" length="14.87663458">
                <paramPoly3 aU="0.00000000" bU="11.15625806" cU="11.15644787" dU="-7.44543977" aV="0.00000000" bV="0.00000000" cV="0.71725980" dV="-0.23732044" pRange="normalized"/>
            </geometry>
            <geometry s="207.10209102" x="678444.08801020" y="4015613.31090558" hdg="-0.44018824" length="14.87614314">
                <paramPoly3 aU="0.00000000" bU="11.15590829" cU="11.15534112" dU="-7.44458078" aV="0.00000000" bV="0.00000000" cV="0.73500870" dV="-0.25103094" pRange="normalized"/>
            </geometry>
            <geometry s="221.97823416" x="678457.74368880" y="4015607.41391375" hdg="-0.37587981" length="14.88136511">
                <paramPoly3 aU="0.00000000" bU="11.15982924" cU="11.16030012" dU="-7.44785827" aV="0.00000000" bV="0.00000000" cV="0.70152679" dV="-0.22911083" pRange="normalized"/>
            </geometry>
            <geometry s="236.85959927" x="678471.75107214" y="4015602.39387031" hdg="-0.31170207" length="14.88620663">
                <paramPoly3 aU="0.00000000" bU="11.16344804" cU="11.16320642" dU="-7.44987530" aV="0.00000000" bV="0.00000000" cV="0.72757172" dV="-0.24520143" pRange="normalized"/>
            </geometry>
            <geometry s="251.74580590" x="678486.05891626" y="4015598.29059894" hdg="-0.24720243" length="14.88712999">
                <paramPoly3 aU="0.00000000" bU="11.16414457" cU="11.16429729" dU="-7.45057686" aV="0.00000000" bV="0.00000000" cV="0.71417565" dV="-0.23666130" pRange="normalized"/>
            </geometry>
            <geometry s="266.63293588" x="678500.60134958" y="4015595.11309675" hdg="-0.18281201" length="14.88830647">
                <paramPoly3 aU="0.00000000" bU="11.16502999" cU="11.16480760" dU="-7.45089741" aV="0.00000000" bV="0.00000000" cV="0.72493570" dV="-0.24413024" pRange="normalized"/>
            </geometry>
            <geometry s="281.52124235" x="678515.31976087" y="4015592.88096683" hdg="-0.11850628" length="14.89190320">
                <paramPoly3 aU="0.00000000" bU="11.16772197" cU="11.16804363" dU="-7.45309033" aV="0.00000000" bV="0.00000000" cV="0.70976791" dV="-0.23343776" pRange="normalized"/>
            </geometry>
            <geometry s="296.41314555" x="678530.15437029" y="4015591.59439098" hdg="-0.05405977" length="14.89169685">
                <paramPoly3 aU="0.00000000" bU="11.16758805" cU="11.16684832" dU="-7.45215898" aV="0.00000000" bV="0.00000000" cV="0.73645420" dV="-0.25332293" pRange="normalized"/>
            </geometry>
            <geometry s="311.30484240" x="678545.04101180" y="4015591.27267574" hdg="0.00982374" length="14.88894594">
                <paramPoly3 aU="0.00000000" bU="11.16551109" cU="11.16648570" dU="-7.45200464" aV="0.00000000" bV="-0.00000000" cV="0.68685930" dV="-0.21891940" pRange="normalized"/>
            </geometry>
            <geometry s="326.19378835" x="678559.91568911" y="4015591.88676792" hdg="0.07408000" length="14.88927437">
                <paramPoly3 aU="0.00000000" bU="11.16573336" cU="11.16519298" dU="-7.45129848" aV="0.00000000" bV="0.00000000" cV="0.74131389" dV="-0.25281323" pRange="normalized"/>
            </geometry>
            <geometry s="341.08306272" x="678574.71835203" y="4015593.47520377" hdg="0.13898365" length="14.88921996">
                <paramPoly3 aU="0.00000000" bU="11.16571917" cU="11.16573085" dU="-7.45148696" aV="0.00000000" bV="0.00000000" cV="0.71648304" dV="-0.23889098" pRange="normalized"/>
            </geometry>
            <geometry s="355.97228268" x="678589.38866822" y="4015596.00961055" hdg="0.20317883" length="14.88847796">
                <paramPoly3 aU="0.00000000" bU="11.16517137" cU="11.16497929" dU="-7.45093012" aV="0.00000000" bV="0.00000000" cV="0.72020631" dV="-0.24224869" pRange="normalized"/>
            </geometry>
            <geometry s="370.86076064" x="678603.86538047" y="4015599.48012204" hdg="0.26714143" length="14.89429201">
                <paramPoly3 aU="0.00000000" bU="11.16952510" cU="11.16984394" dU="-7.45421667" aV="0.00000000" bV="-0.00000000" cV="0.70641516" dV="-0.23233054" pRange="normalized"/>
            </geometry>
            <geometry s="385.75505265" x="678618.09740132" y="4015603.86670381" hdg="0.33127394" length="14.87943280">
                <paramPoly3 aU="0.00000000" bU="11.15834715" cU="11.15863597" dU="-7.44695973" aV="0.00000000" bV="-0.00000000" cV="0.71712291" dV="-0.23626504" pRange="normalized"/>
            </geometry>
            <geometry s="400.63448545" x="678632.00252515" y="4015609.15786165" hdg="0.39633400" length="14.87961193">
                <paramPoly3 aU="0.00000000" bU="11.15851219" cU="11.15761497" dU="-7.44608093" aV="0.00000000" bV="0.00000000" cV="0.74449086" dV="-0.25756913" pRange="normalized"/>
            </geometry>
            <geometry s="415.51409738" x="678645.53191040" y="4015615.34745793" hdg="0.46056900" length="14.87641025">
                <paramPoly3 aU="0.00000000" bU="11.15610988" cU="11.15699349" dU="-7.44567327" aV="0.00000000" bV="0.00000000" cV="0.68930252" dV="-0.22069923" pRange="normalized"/>
            </geometry>
            <geometry s="430.39050763" x="678658.64187606" y="4015622.37517930" hdg="0.52483880" length="14.86464067">
                <paramPoly3 aU="0.00000000" bU="11.14727405" cU="11.14650977" dU="-7.43874002" aV="0.00000000" bV="0.00000000" cV="0.74287597" dV="-0.25564283" pRange="normalized"/>
            </geometry>
            <geometry s="445.25514830" x="678671.25336157" y="4015630.24030203" hdg="0.58936781" length="14.87492116">
                <paramPoly3 aU="0.00000000" bU="11.15498405" cU="11.15574664" dU="-7.44490028" aV="0.00000000" bV="0.00000000" cV="0.69591010" dV="-0.22421301" pRange="normalized"/>
            </geometry>
            <geometry s="460.13006946" x="678683.34902500" y="4015638.89537787" hdg="0.65388429" length="14.99248748">
                <paramPoly3 aU="0.00000000" bU="11.24381090" cU="11.22849368" dU="-7.48849188" aV="0.00000000" bV="0.00000000" cV="1.02631305" dV="-0.53860292" pRange="normalized"/>
            </geometry>
            <geometry s="475.12255694" x="678694.94542148" y="4015648.39675107" hdg="0.69274365" length="8.06743893">
                <paramPoly3 aU="0.00000000" bU="6.05053940" cU="6.04949181" dU="-4.03320204" aV="0.00000000" bV="0.00000000" cV="0.19752784" dV="-0.10275494" pRange="normalized"/>
            </geometry>
            <geometry s="483.18999588" x="678701.09229296" y="4015653.62156550" hdg="0.70708846" length="9.38668673">
                <paramPoly3 aU="0.00000000" bU="7.04001373" cU="7.03995265" dU="-4.69330478" aV="0.00000000" bV="0.00000000" cV="0.05156107" dV="-0.03061105" pRange="normalized"/>
            </geometry>
            <geometry s="492.57668261" x="678708.21495384" y="4015659.73528424" hdg="0.70869200" length="7.21008101">
                <paramPoly3 aU="0.00000000" bU="5.40756037" cU="5.40755374" dU="-3.60503603" aV="0.00000000" bV="0.00000000" cV="-0.02026940" dV="0.01437135" pRange="normalized"/>
            </geometry>
            <geometry s="499.78676362" x="678713.69278348" y="4015664.42342279" hdg="0.70916823" length="28.81297844">
                <paramPoly3 aU="0.00000000" bU="21.60973368" cU="21.60972916" dU="-14.40648612" aV="0.00000000" bV="0.00000000" cV="0.02894658" dV="-0.01961488" pRange="normalized"/>
            </geometry>
            <geometry s="528.59974206" x="678735.55298386" y="4015683.19359472" hdg="0.70912420" length="12.57709035">
                <paramPoly3 aU="0.00000000" bU="9.43281750" cU="9.43280506" dU="-6.28853703" aV="0.00000000" bV="0.00000000" cV="-0.02753236" dV="0.01693201" pRange="normalized"/>
            </geometry>
            <geometry s="541.17683240" x="678745.10504496" y="4015691.37536235" hdg="0.70867166" length="11.31532230">
                <paramPoly3 aU="0.00000000" bU="8.48649165" cU="8.48648954" dU="-5.65766005" aV="0.00000000" bV="0.00000000" cV="0.01044637" dV="-0.00553762" pRange="normalized"/>
            </geometry>
            <geometry s="552.49215471" x="678753.69274824" y="4015698.74339255" hdg="0.70917598" length="12.36013904">
                <paramPoly3 aU="0.00000000" bU="9.27010427" cU="9.27010424" dU="-6.18006951" aV="0.00000000" bV="0.00000000" cV="0.00151730" dV="-0.00071954" pRange="normalized"/>
            </geometry>
            <geometry s="564.85229374" x="678763.07232268" y="4015706.79302734" hdg="0.70927048" length="338.42589923">
                <line/>
            </geometry>
            <geometry s="903.27819297" x="679019.88248532" y="4015927.20316692" hdg="0.70927048" length="15.05055537">
                <paramPoly3 aU="0.00000000" bU="11.28772471" cU="11.28992127" dU="-7.52735192" aV="0.00000000" bV="-0.00000000" cV="-0.26228055" dV="0.24935882" pRange="normalized"/>
            </geometry>
            <geometry s="918.32874834" x="679031.31162404" y="4015936.99532229" hdg="0.72907340" length="14.90863687">
                <paramPoly3 aU="0.00000000" bU="11.18097960" cU="11.18082982" dU="-7.45707965" aV="0.00000000" bV="0.00000000" cV="0.47008750" dV="-0.15914793" pRange="normalized"/>
            </geometry>
            <geometry s="933.23738520" x="679042.22031093" y="4015947.15643460" hdg="0.77047080" length="14.91898236">
                <paramPoly3 aU="0.00000000" bU="11.18876330" cU="11.18844230" dU="-7.46199659" aV="0.00000000" bV="0.00000000" cV="0.46720684" dV="-0.16103927" pRange="normalized"/>
            </geometry>
            <geometry s="948.15636756" x="679052.70997166" y="4015957.76417783" hdg="0.81081648" length="14.89270645">
                <paramPoly3 aU="0.00000000" bU="11.16888120" cU="11.17238472" dU="-7.45236006" aV="0.00000000" bV="-0.00000000" cV="0.36279392" dV="-0.06711124" pRange="normalized"/>
            </geometry>
            <geometry s="963.04907401" x="679062.75271512" y="4015968.76009752" hdg="0.85777256" length="19.38074233">
                <paramPoly3 aU="0.00000000" bU="14.53472474" cU="14.53801593" dU="-9.69730896" aV="0.00000000" bV="0.00000000" cV="0.53096873" dV="-0.12745779" pRange="normalized"/>
            </geometry>
            <geometry s="982.42981635" x="679075.12143744" y="4015983.67937643" hdg="0.90454413" length="19.33702738">
                <paramPoly3 aU="0.00000000" bU="14.50172169" cU="14.50227591" dU="-9.67490765" aV="0.00000000" bV="0.00000000" cV="0.74385021" dV="-0.24103085" pRange="normalized"/>
            </geometry>
            <geometry s="1001.76684373" x="679086.67237778" y="4015999.18557915" hdg="0.95729391" length="19.31776858">
                <paramPoly3 aU="0.00000000" bU="14.48719736" cU="14.48814667" dU="-9.66600121" aV="0.00000000" bV="0.00000000" cV="0.75821244" dV="-0.24120001" pRange="normalized"/>
            </geometry>
            <geometry s="1021.08461231" x="679097.36670806" y="4016015.27126601" hdg="1.01204715" length="14.90387794">
                <paramPoly3 aU="0.00000000" bU="11.17653258" cU="11.17353587" dU="-7.45782965" aV="0.00000000" bV="0.00000000" cV="0.85346076" dV="-0.31297734" pRange="normalized"/>
            </geometry>
            <geometry s="1035.98849025" x="679104.80318513" y="4016028.18520063" hdg="1.08081581" length="14.91380343">
                <paramPoly3 aU="0.00000000" bU="11.18411393" cU="11.18435650" dU="-7.46417858" aV="0.00000000" bV="0.00000000" cV="0.72272684" dV="-0.23862047" pRange="normalized"/>
            </geometry>
            <geometry s="1050.90229368" x="679111.39012706" y="4016041.56370842" hdg="1.14609687" length="14.92931205">
                <paramPoly3 aU="0.00000000" bU="11.19617200" cU="11.18714040" dU="-7.46310085" aV="0.00000000" bV="0.00000000" cV="0.88782380" dV="-0.39862206" pRange="normalized"/>
            </geometry>
            <geometry s="1065.83160573" x="679117.09221254" y="4016055.36002141" hdg="1.19790393" length="7.95987680">
                <paramPoly3 aU="0.00000000" bU="5.96952123" cU="5.96066570" dU="-3.97589655" aV="0.00000000" bV="0.00000000" cV="0.57679739" dV="-0.29271608" pRange="normalized"/>
            </geometry>
            <geometry s="1073.79148252" x="679119.72548610" y="4016062.87116701" hdg="1.24406247" length="6.88041394">
                <paramPoly3 aU="0.00000000" bU="5.15994346" cU="5.16460250" dU="-3.44512503" aV="0.00000000" bV="-0.00000000" cV="-0.00251534" dV="0.08576465" pRange="normalized"/>
            </geometry>
            <geometry s="1080.67189646" x="679121.85460077" y="4016069.41335574" hdg="1.29297074" length="14.92061349">
                <paramPoly3 aU="0.00000000" bU="11.18970561" cU="11.19700232" dU="-7.46924873" aV="0.00000000" bV="0.00000000" cV="0.20514825" dV="0.04802840" pRange="normalized"/>
            </geometry>
            <geometry s="1095.59250996" x="679125.70247337" y="4016083.82822874" hdg="1.34253493" length="14.88996404">
                <paramPoly3 aU="0.00000000" bU="11.16622683" cU="11.16637209" dU="-7.45223751" aV="0.00000000" bV="-0.00000000" cV="0.72738021" dV="-0.24117677" pRange="normalized"/>